machine_1/Transmission/psse_run_progress_output.txt

14 Output channels have been added


Next available addresses are:
  CHANNEL    VAR    ICON
      41      40      25

14 Output channels have been added


Next available addresses are:
  CHANNEL    VAR    ICON
      55      40      25

Output completed

Output completed

14 diagonal and 24 off-diagonal elements

Model GENROU Bus 2 [BUS2        69.000] Machine "1 " :
X''D =  0.2800     and Imaginary part of complex machine impedance (ZSORCE) =  0.1300     differ by > 0.000005

Model GENROU Bus 3 [BUS3        69.000] Machine "1 " :
X''D =  0.3400     and Imaginary part of complex machine impedance (ZSORCE) =  0.1300     differ by > 0.000005

Model GENROU Bus 6 [BUS6        138.00] Machine "1 " :
X''D =  0.2800     and Imaginary part of complex machine impedance (ZSORCE) =  0.1200     differ by > 0.000005

Model GENROU Bus 8 [BUS8        69.000] Machine "1 " :
X''D =  0.3400     and Imaginary part of complex machine impedance (ZSORCE) =  0.1200     differ by > 0.000005

Model TGOV1 Bus 6 [BUS6        138.00] Machine "1 " :
    PMECH Initialized out of limit: PMECH (pu on Trate)=  0.3000       VMIN=  0.3000

    PTI INTERACTIVE POWER SYSTEM SIMULATOR--PSS(R)E     TUE, AUG 06 2024  17:17
 IEEE 14 BUS TEST CASE
 03/06/14 CONTO           100.0  1962 W

INITIAL CONDITION LOAD FLOW USED 1 ITERATIONS

----------------------------- MACHINE INITIAL CONDITIONS -----------------------------
  BUS#-SCT X-- NAME --X BASKV ID  ETERM   EFD    POWER    VARS   P.F.  ANGLE   ID     IQ
     1     BUS1        69.000 1  1.0300 1.8936   81.46    1.96 0.9997  49.33 0.6123 0.5010
     2     BUS2        69.000 1  1.0197 1.5480   40.00   15.00 0.9363  22.90 0.2966 0.2959
     3     BUS3        69.000 1  1.0004 1.4984   40.00   15.00 0.9363  21.38 0.3040 0.2999
     6     BUS6        138.00 1  0.9987 1.3599   30.00   10.00 0.9487  14.63 0.2008 0.2448
     8     BUS8        69.000 1  1.0189 1.4134   35.00   10.00 0.9615  20.90 0.2211 0.2806

INITIAL CONDITIONS CHECK O.K.

Channel output file is "ieee_14\ieee14_run_trip_reduced_inertia.outx"

Channel output file is "ieee_14\ieee14_run_trip_reduced_inertia.outx"

   TIME X- VALUE --X X--------- IDENTIFIER ---------X X- VALUE --X X--------- IDENTIFIER ---------X
-0.0083   49.326     ANGL     1[BUS1        69.000]1    22.904     ANGL     2[BUS2        69.000]1
    3     21.385     ANGL     3[BUS3        69.000]1    14.630     ANGL     6[BUS6        138.00]1
    5     20.896     ANGL     8[BUS8        69.000]1   0.81462     POWR     1[BUS1        69.000]1
    7    0.39999     POWR     2[BUS2        69.000]1   0.40000     POWR     3[BUS3        69.000]1
    9    0.30000     POWR     6[BUS6        138.00]1   0.35000     POWR     8[BUS8        69.000]1
   11    1.96210E-02 VARS     1[BUS1        69.000]1   0.15000     VARS     2[BUS2        69.000]1
   13    0.15000     VARS     3[BUS3        69.000]1   0.10000     VARS     6[BUS6        138.00]1
   15    0.10000     VARS     8[BUS8        69.000]1    0.0000     SPD      1[BUS1        69.000]1
   17     0.0000     SPD      2[BUS2        69.000]1    0.0000     SPD      3[BUS3        69.000]1
   19     0.0000     SPD      6[BUS6        138.00]1    0.0000     SPD      8[BUS8        69.000]1
   21     25.828     AVERAGE ANGLE                      49.326     LARGEST ANGLE
   23     1.0000     BUS WITH LARGEST ANGLE             14.630     SMALLEST ANGLE
   25     6.0000     BUS WITH SMALLEST ANGLE            34.696     ANGLE SPREAD
   27     1.0300     VOLT      1 [BUS1        69.000]   1.0197     VOLT      2 [BUS2        69.000]
   29     1.0004     VOLT      3 [BUS3        69.000]  0.99858     VOLT      4 [BUS4        69.000]
   31     1.0044     VOLT      5 [BUS5        69.000]  0.99871     VOLT      6 [BUS6        138.00]
   33     1.0068     VOLT      7 [BUS7        138.00]   1.0189     VOLT      8 [BUS8        69.000]
   35     1.0019     VOLT      9 [BUS9        138.00]  0.99350     VOLT     10 [BUS10       138.00]
   37    0.99244     VOLT     11 [BUS11       138.00]  0.98640     VOLT     12 [BUS12       138.00]
   39    0.98403     VOLT     13 [BUS13       138.00]  0.99063     VOLT     14 [BUS14       138.00]
   41     0.0000     FREQ      1 [BUS1        69.000]   0.0000     FREQ      2 [BUS2        69.000]
   43     0.0000     FREQ      3 [BUS3        69.000]   0.0000     FREQ      4 [BUS4        69.000]
   45     0.0000     FREQ      5 [BUS5        69.000]   0.0000     FREQ      6 [BUS6        138.00]
   47     0.0000     FREQ      7 [BUS7        138.00]   0.0000     FREQ      8 [BUS8        69.000]
   49     0.0000     FREQ      9 [BUS9        138.00]   0.0000     FREQ     10 [BUS10       138.00]
   51     0.0000     FREQ     11 [BUS11       138.00]   0.0000     FREQ     12 [BUS12       138.00]
   53     0.0000     FREQ     13 [BUS13       138.00]   0.0000     FREQ     14 [BUS14       138.00]

-0.0042   49.326       22.904       21.385       14.630       20.896      0.81462
    7    0.39999      0.40000      0.30000      0.35000      1.96210E-02  0.15000
   13    0.15000      0.10000      0.10000      2.79419E-10 -6.20931E-11  4.65699E-11
   19    2.98047E-09 -1.86279E-10   25.828       49.326       1.0000       14.630
   25     6.0000       34.696       1.0300       1.0197       1.0004      0.99858
   31     1.0044      0.99871       1.0068       1.0189       1.0019      0.99350
   37    0.99244      0.98640      0.98403      0.99063     -7.78172E-10 -5.92898E-10
   43   -2.96449E-10 -5.92898E-10 -5.92898E-10  1.18580E-09  5.92898E-10  4.44674E-10
   49   -1.18580E-09  1.18580E-09 -5.92898E-10   0.0000       0.0000     -1.18580E-09

 0.0000   49.326       22.904       21.385       14.630       20.896      0.81462
    7    0.39999      0.40000      0.30000      0.35000      1.96210E-02  0.15000
   13    0.15000      0.10000      0.10000      3.72559E-10 -1.65582E-10 -1.55233E-11
   19    5.01402E-09 -3.57036E-10   25.828       49.326       1.0000       14.630
   25     6.0000       34.696       1.0300       1.0197       1.0004      0.99858
   31     1.0044      0.99871       1.0068       1.0189       1.0019      0.99350
   37    0.99244      0.98640      0.98403      0.99063     -9.47107E-10 -8.15229E-10
   43   -5.55839E-10 -1.11168E-09 -1.11168E-09 -7.41135E-10 -7.41182E-11  9.26359E-11
   49   -2.22336E-09 -1.48236E-10 -1.70458E-09 -1.18580E-09 -1.18580E-09 -2.22336E-09

 0.0042   49.326       22.904       21.385       14.630       20.896      0.81462
    7    0.39999      0.40000      0.30000      0.35000      1.96210E-02  0.15000
   13    0.15000      0.10000      0.10000      5.89885E-10 -2.48373E-10 -4.65699E-11
   19    7.03205E-09 -5.12268E-10   25.828       49.326       1.0000       14.630
   25     6.0000       34.696       1.0300       1.0197       1.0004      0.99858
   31     1.0044      0.99871       1.0068       1.0189       1.0019      0.99350
   37    0.99244      0.98640      0.98403      0.99063     -8.08279E-10 -7.13318E-10
   43   -4.86354E-10 -9.72708E-10 -3.79809E-10 -6.48486E-10 -6.48527E-11  2.29280E-10
   49   -1.94542E-09 -1.29705E-10 -1.49149E-09 -1.03756E-09 -1.03756E-09 -1.94542E-09

 0.0083   49.326       22.904       21.385       14.630       20.896      0.81462
    7    0.39999      0.40000      0.30000      0.35000      1.96210E-02  0.15000
   13    0.15000      0.10000      0.10000      7.76164E-10 -3.31163E-10 -7.76164E-11
   19    9.05007E-09 -6.67501E-10   25.828       49.326       1.0000       14.630
   25     6.0000       34.696       1.0300       1.0197       1.0004      0.99858
   31     1.0044      0.99871       1.0068       1.0189       1.0019      0.99350
   37    0.99244      0.98640      0.98403      0.99063     -7.11588E-10 -6.24146E-10
   43   -4.25555E-10 -8.51109E-10 -3.32329E-10 -5.67418E-10 -5.67455E-11  2.00618E-10
   49   -1.70222E-09 -1.13491E-10 -1.30504E-09 -9.07855E-10 -9.07855E-10 -1.70222E-09

   TIME X- VALUE --X X--------- IDENTIFIER ---------X X- VALUE --X X--------- IDENTIFIER ---------X
 0.0125   49.326     ANGL     1[BUS1        69.000]1    22.904     ANGL     2[BUS2        69.000]1
    3     21.385     ANGL     3[BUS3        69.000]1    14.630     ANGL     6[BUS6        138.00]1
    5     20.896     ANGL     8[BUS8        69.000]1   0.81462     POWR     1[BUS1        69.000]1
    7    0.39999     POWR     2[BUS2        69.000]1   0.40000     POWR     3[BUS3        69.000]1
    9    0.30000     POWR     6[BUS6        138.00]1   0.35000     POWR     8[BUS8        69.000]1
   11    1.96210E-02 VARS     1[BUS1        69.000]1   0.15000     VARS     2[BUS2        69.000]1
   13    0.15000     VARS     3[BUS3        69.000]1   0.10000     VARS     6[BUS6        138.00]1
   15    0.10000     VARS     8[BUS8        69.000]1   9.62444E-10 SPD      1[BUS1        69.000]1
   17   -4.13954E-10 SPD      2[BUS2        69.000]1  -1.08663E-10 SPD      3[BUS3        69.000]1
   19    1.10681E-08 SPD      6[BUS6        138.00]1  -8.22734E-10 SPD      8[BUS8        69.000]1
   21     25.828     AVERAGE ANGLE                      49.326     LARGEST ANGLE
   23     1.0000     BUS WITH LARGEST ANGLE             14.630     SMALLEST ANGLE
   25     6.0000     BUS WITH SMALLEST ANGLE            34.696     ANGLE SPREAD
   27     1.0300     VOLT      1 [BUS1        69.000]   1.0197     VOLT      2 [BUS2        69.000]
   29     1.0004     VOLT      3 [BUS3        69.000]  0.99858     VOLT      4 [BUS4        69.000]
   31     1.0044     VOLT      5 [BUS5        69.000]  0.99871     VOLT      6 [BUS6        138.00]
   33     1.0068     VOLT      7 [BUS7        138.00]   1.0189     VOLT      8 [BUS8        69.000]
   35     1.0019     VOLT      9 [BUS9        138.00]  0.99350     VOLT     10 [BUS10       138.00]
   37    0.99244     VOLT     11 [BUS11       138.00]  0.98640     VOLT     12 [BUS12       138.00]
   39    0.98403     VOLT     13 [BUS13       138.00]  0.99063     VOLT     14 [BUS14       138.00]
   41   -6.22286E-10 FREQ      1 [BUS1        69.000] -5.46121E-10 FREQ      2 [BUS2        69.000]
   43   -3.72356E-10 FREQ      3 [BUS3        69.000] -7.44712E-10 FREQ      4 [BUS4        69.000]
   45   -2.90785E-10 FREQ      5 [BUS5        69.000] -4.96485E-10 FREQ      6 [BUS6        138.00]
   47   -4.96517E-11 FREQ      7 [BUS7        138.00]  1.75539E-10 FREQ      8 [BUS8        69.000]
   49   -1.48942E-09 FREQ      9 [BUS9        138.00] -9.93034E-11 FREQ     10 [BUS10       138.00]
   51   -1.14189E-09 FREQ     11 [BUS11       138.00] -7.94364E-10 FREQ     12 [BUS12       138.00]
   53   -7.94364E-10 FREQ     13 [BUS13       138.00] -1.48942E-09 FREQ     14 [BUS14       138.00]

 0.0167   49.326       22.904       21.385       14.630       20.896      0.81462
    7    0.39999      0.40000      0.30000      0.35000      1.96210E-02  0.15000
   13    0.15000      0.10000      0.10000      1.14872E-09 -4.96745E-10 -1.39710E-10
   19    1.30861E-08 -9.77967E-10   25.828       49.326       1.0000       14.630
   25     6.0000       34.696       1.0300       1.0197       1.0004      0.99858
   31     1.0044      0.99871       1.0068       1.0189       1.0019      0.99350
   37    0.99244      0.98640      0.98403      0.99063     -5.44564E-10 -4.77851E-10
   43   -3.25808E-10 -6.51616E-10 -2.54434E-10 -4.34420E-10 -4.34448E-11  1.53594E-10
   49   -1.30323E-09 -8.68895E-11 -9.99146E-10 -6.95060E-10 -6.95060E-10 -1.30323E-09

 0.0208   49.326       22.904       21.385       14.630       20.896      0.81462
    7    0.39999      0.40000      0.30000      0.35000      1.96210E-02  0.15000
   13    0.15000      0.10000      0.10000      1.33500E-09 -5.17443E-10 -7.76164E-11
   19    1.50576E-08 -1.08663E-09   25.828       49.326       1.0000       14.630
   25     6.0000       34.696       1.0300       1.0197       1.0004      0.99858
   31     1.0044      0.99871       1.0068       1.0189       1.0019      0.99350
   37    0.99244      0.98640      0.98403      0.99063     -2.14902E-10 -1.21665E-10
   43    1.13705E-11  2.27411E-11 -2.22627E-10  1.39858E-09  5.54885E-10  2.82618E-10
   49    4.54822E-11  1.10977E-09  3.11554E-10  5.77626E-10  5.77626E-10  4.54822E-11

Power flow data changed for load "1" at bus 11 [BUS11       138.00]:
X--ORIGINAL--X  X-NEW VALUE--X  DATA ITEM
   3.50000         2.30748      PL

Channel output file is "ieee_14\ieee14_run_trip_reduced_inertia.outx"

14 diagonal and 24 off-diagonal elements

   TIME X- VALUE --X X--------- IDENTIFIER ---------X X- VALUE --X X--------- IDENTIFIER ---------X
 0.0208   49.326     ANGL     1[BUS1        69.000]1    22.904     ANGL     2[BUS2        69.000]1
    3     21.385     ANGL     3[BUS3        69.000]1    14.630     ANGL     6[BUS6        138.00]1
    5     20.896     ANGL     8[BUS8        69.000]1   0.81377     POWR     1[BUS1        69.000]1
    7    0.39837     POWR     2[BUS2        69.000]1   0.39866     POWR     3[BUS3        69.000]1
    9    0.29376     POWR     6[BUS6        138.00]1   0.34794     POWR     8[BUS8        69.000]1
   11    1.95465E-02 VARS     1[BUS1        69.000]1   0.14970     VARS     2[BUS2        69.000]1
   13    0.14984     VARS     3[BUS3        69.000]1   9.96746E-02 VARS     6[BUS6        138.00]1
   15    9.94305E-02 VARS     8[BUS8        69.000]1   1.33500E-09 SPD      1[BUS1        69.000]1
   17   -5.17443E-10 SPD      2[BUS2        69.000]1  -7.76164E-11 SPD      3[BUS3        69.000]1
   19    1.50576E-08 SPD      6[BUS6        138.00]1  -1.08663E-09 SPD      8[BUS8        69.000]1
   21     25.828     AVERAGE ANGLE                      49.326     LARGEST ANGLE
   23     1.0000     BUS WITH LARGEST ANGLE             14.630     SMALLEST ANGLE
   25     6.0000     BUS WITH SMALLEST ANGLE            34.696     ANGLE SPREAD
   27     1.0301     VOLT      1 [BUS1        69.000]   1.0197     VOLT      2 [BUS2        69.000]
   29     1.0004     VOLT      3 [BUS3        69.000]  0.99870     VOLT      4 [BUS4        69.000]
   31     1.0045     VOLT      5 [BUS5        69.000]  0.99878     VOLT      6 [BUS6        138.00]
   33     1.0070     VOLT      7 [BUS7        138.00]   1.0190     VOLT      8 [BUS8        69.000]
   35     1.0021     VOLT      9 [BUS9        138.00]  0.99385     VOLT     10 [BUS10       138.00]
   37    0.99320     VOLT     11 [BUS11       138.00]  0.98648     VOLT     12 [BUS12       138.00]
   39    0.98412     VOLT     13 [BUS13       138.00]  0.99078     VOLT     14 [BUS14       138.00]
   41   -2.14902E-10 FREQ      1 [BUS1        69.000] -1.21665E-10 FREQ      2 [BUS2        69.000]
   43    1.13705E-11 FREQ      3 [BUS3        69.000]  2.27411E-11 FREQ      4 [BUS4        69.000]
   45   -2.22627E-10 FREQ      5 [BUS5        69.000]  1.39858E-09 FREQ      6 [BUS6        138.00]
   47    5.54885E-10 FREQ      7 [BUS7        138.00]  2.82618E-10 FREQ      8 [BUS8        69.000]
   49    4.54822E-11 FREQ      9 [BUS9        138.00]  1.10977E-09 FREQ     10 [BUS10       138.00]
   51    3.11554E-10 FREQ     11 [BUS11       138.00]  5.77626E-10 FREQ     12 [BUS12       138.00]
   53    5.77626E-10 FREQ     13 [BUS13       138.00]  4.54822E-11 FREQ     14 [BUS14       138.00]

 0.0250   49.326       22.904       21.385       14.630       20.896      0.81363
    7    0.39830      0.39855      0.29419      0.34786      1.95768E-02  0.14970
   13    0.14984      9.95601E-02  9.94363E-02  6.65235E-07  8.44172E-07  1.04577E-06
   19    4.88909E-06  1.61271E-06   25.828       49.326       1.0000       14.630
   25     6.0000       34.696       1.0301       1.0197       1.0004      0.99870
   31     1.0045      0.99877       1.0070       1.0190       1.0021      0.99385
   37    0.99319      0.98647      0.98412      0.99078     -2.06746E-10 -1.06456E-10
   43    9.94911E-12  1.98982E-11 -1.94796E-10  1.22375E-09  4.85519E-10  2.47288E-10
   49    3.97964E-11  9.71037E-10  2.72606E-10  5.05417E-10  5.05417E-10  3.97964E-11

 0.0292   49.326       22.904       21.385       14.631       20.896      0.81343
    7    0.39818      0.39838      0.29478      0.34776      1.96202E-02  0.14969
   13    0.14983      9.94305E-02  9.94418E-02  1.98378E-06  2.33118E-06  2.96897E-06
   19    1.23401E-05  4.41619E-06   25.828       49.326       1.0000       14.631
   25     6.0000       34.696       1.0301       1.0197       1.0004      0.99871
   31     1.0046      0.99877       1.0070       1.0190       1.0021      0.99384
   37    0.99319      0.98647      0.98411      0.99077      3.96498E-06  4.23646E-06
   43    3.85800E-06  5.18195E-06  5.48948E-06  1.08108E-05  5.71656E-06  4.71717E-06
   49    6.61204E-06  7.31366E-06  9.01467E-06  1.04592E-05  1.01354E-05  8.01958E-06

 0.0333   49.327       22.905       21.385       14.632       20.897      0.81331
    7    0.39811      0.39828      0.29511      0.34771      1.96421E-02  0.14968
   13    0.14982      9.93811E-02  9.94383E-02  3.31773E-06  3.62867E-06  4.74300E-06
   19    1.74675E-05  6.79979E-06   25.829       49.327       1.0000       14.632
   25     6.0000       34.695       1.0301       1.0197       1.0004      0.99871
   31     1.0046      0.99877       1.0070       1.0190       1.0021      0.99384
   37    0.99319      0.98647      0.98411      0.99077      1.00731E-05  1.07136E-05
   43    9.90026E-06  1.29337E-05  1.36036E-05  2.57083E-05  1.42571E-05  1.19844E-05
   49    1.63521E-05  1.79396E-05  2.17266E-05  2.49678E-05  2.42660E-05  1.96090E-05

 0.0375   49.327       22.905       21.386       14.634       20.897      0.81320
    7    0.39804      0.39820      0.29541      0.34766      1.96637E-02  0.14967
   13    0.14980      9.93358E-02  9.94337E-02  4.73532E-06  4.96187E-06  6.57923E-06
   19    2.23866E-05  9.20604E-06   25.830       49.327       1.0000       14.634
   25     6.0000       34.693       1.0301       1.0198       1.0004      0.99872
   31     1.0046      0.99878       1.0070       1.0190       1.0021      0.99384
   37    0.99319      0.98648      0.98412      0.99077      1.40775E-05  1.48996E-05
   43    1.39898E-05  1.77036E-05  1.84836E-05  3.33469E-05  1.94728E-05  1.67474E-05
   49    2.20891E-05  2.40165E-05  2.85722E-05  3.24962E-05  3.16663E-05  2.61093E-05

   TIME X- VALUE --X X--------- IDENTIFIER ---------X X- VALUE --X X--------- IDENTIFIER ---------X
 0.0417   49.327     ANGL     1[BUS1        69.000]1    22.905     ANGL     2[BUS2        69.000]1
    3     21.386     ANGL     3[BUS3        69.000]1    14.636     ANGL     6[BUS6        138.00]1
    5     20.898     ANGL     8[BUS8        69.000]1   0.81310     POWR     1[BUS1        69.000]1
    7    0.39798     POWR     2[BUS2        69.000]1   0.39812     POWR     3[BUS3        69.000]1
    9    0.29568     POWR     6[BUS6        138.00]1   0.34763     POWR     8[BUS8        69.000]1
   11    1.96817E-02 VARS     1[BUS1        69.000]1   0.14966     VARS     2[BUS2        69.000]1
   13    0.14978     VARS     3[BUS3        69.000]1   9.93056E-02 VARS     6[BUS6        138.00]1
   15    9.94251E-02 VARS     8[BUS8        69.000]1   6.25889E-06 SPD      1[BUS1        69.000]1
   17    6.34064E-06 SPD      2[BUS2        69.000]1   8.49956E-06 SPD      3[BUS3        69.000]1
   19    2.69959E-05 SPD      6[BUS6        138.00]1   1.16489E-05 SPD      8[BUS8        69.000]1
   21     25.831     AVERAGE ANGLE                      49.327     LARGEST ANGLE
   23     1.0000     BUS WITH LARGEST ANGLE             14.636     SMALLEST ANGLE
   25     6.0000     BUS WITH SMALLEST ANGLE            34.691     ANGLE SPREAD
   27     1.0301     VOLT      1 [BUS1        69.000]   1.0198     VOLT      2 [BUS2        69.000]
   29     1.0004     VOLT      3 [BUS3        69.000]  0.99872     VOLT      4 [BUS4        69.000]
   31     1.0046     VOLT      5 [BUS5        69.000]  0.99878     VOLT      6 [BUS6        138.00]
   33     1.0070     VOLT      7 [BUS7        138.00]   1.0190     VOLT      8 [BUS8        69.000]
   35     1.0021     VOLT      9 [BUS9        138.00]  0.99384     VOLT     10 [BUS10       138.00]
   37    0.99319     VOLT     11 [BUS11       138.00]  0.98649     VOLT     12 [BUS12       138.00]
   39    0.98412     VOLT     13 [BUS13       138.00]  0.99078     VOLT     14 [BUS14       138.00]
   41    1.76028E-05 FREQ      1 [BUS1        69.000]  1.85636E-05 FREQ      2 [BUS2        69.000]
   43    1.76016E-05 FREQ      3 [BUS3        69.000]  2.18179E-05 FREQ      4 [BUS4        69.000]
   45    2.26800E-05 FREQ      5 [BUS5        69.000]  3.96399E-05 FREQ      6 [BUS6        138.00]
   47    2.39446E-05 FREQ      7 [BUS7        138.00]  2.09188E-05 FREQ      8 [BUS8        69.000]
   49    2.69394E-05 FREQ      9 [BUS9        138.00]  2.91227E-05 FREQ     10 [BUS10       138.00]
   51    3.42633E-05 FREQ     11 [BUS11       138.00]  3.86993E-05 FREQ     12 [BUS12       138.00]
   53    3.77716E-05 FREQ     13 [BUS13       138.00]  3.15218E-05 FREQ     14 [BUS14       138.00]

Power flow data changed for load "1" at bus 11 [BUS11       138.00]:
X--ORIGINAL--X  X-NEW VALUE--X  DATA ITEM
   2.30748         2.31693      PL

Channel output file is "ieee_14\ieee14_run_trip_reduced_inertia.outx"

14 diagonal and 24 off-diagonal elements

   TIME X- VALUE --X X--------- IDENTIFIER ---------X X- VALUE --X X--------- IDENTIFIER ---------X
 0.0417   49.327     ANGL     1[BUS1        69.000]1    22.905     ANGL     2[BUS2        69.000]1
    3     21.386     ANGL     3[BUS3        69.000]1    14.636     ANGL     6[BUS6        138.00]1
    5     20.898     ANGL     8[BUS8        69.000]1   0.81311     POWR     1[BUS1        69.000]1
    7    0.39799     POWR     2[BUS2        69.000]1   0.39813     POWR     3[BUS3        69.000]1
    9    0.29572     POWR     6[BUS6        138.00]1   0.34764     POWR     8[BUS8        69.000]1
   11    1.96819E-02 VARS     1[BUS1        69.000]1   0.14966     VARS     2[BUS2        69.000]1
   13    0.14978     VARS     3[BUS3        69.000]1   9.93054E-02 VARS     6[BUS6        138.00]1
   15    9.94291E-02 VARS     8[BUS8        69.000]1   6.25889E-06 SPD      1[BUS1        69.000]1
   17    6.34064E-06 SPD      2[BUS2        69.000]1   8.49956E-06 SPD      3[BUS3        69.000]1
   19    2.69959E-05 SPD      6[BUS6        138.00]1   1.16489E-05 SPD      8[BUS8        69.000]1
   21     25.831     AVERAGE ANGLE                      49.327     LARGEST ANGLE
   23     1.0000     BUS WITH LARGEST ANGLE             14.636     SMALLEST ANGLE
   25     6.0000     BUS WITH SMALLEST ANGLE            34.691     ANGLE SPREAD
   27     1.0301     VOLT      1 [BUS1        69.000]   1.0198     VOLT      2 [BUS2        69.000]
   29     1.0004     VOLT      3 [BUS3        69.000]  0.99872     VOLT      4 [BUS4        69.000]
   31     1.0046     VOLT      5 [BUS5        69.000]  0.99878     VOLT      6 [BUS6        138.00]
   33     1.0070     VOLT      7 [BUS7        138.00]   1.0190     VOLT      8 [BUS8        69.000]
   35     1.0021     VOLT      9 [BUS9        138.00]  0.99384     VOLT     10 [BUS10       138.00]
   37    0.99319     VOLT     11 [BUS11       138.00]  0.98649     VOLT     12 [BUS12       138.00]
   39    0.98412     VOLT     13 [BUS13       138.00]  0.99078     VOLT     14 [BUS14       138.00]
   41    1.76028E-05 FREQ      1 [BUS1        69.000]  1.85636E-05 FREQ      2 [BUS2        69.000]
   43    1.76016E-05 FREQ      3 [BUS3        69.000]  2.18179E-05 FREQ      4 [BUS4        69.000]
   45    2.26800E-05 FREQ      5 [BUS5        69.000]  3.96399E-05 FREQ      6 [BUS6        138.00]
   47    2.39446E-05 FREQ      7 [BUS7        138.00]  2.09188E-05 FREQ      8 [BUS8        69.000]
   49    2.69394E-05 FREQ      9 [BUS9        138.00]  2.91227E-05 FREQ     10 [BUS10       138.00]
   51    3.42633E-05 FREQ     11 [BUS11       138.00]  3.86993E-05 FREQ     12 [BUS12       138.00]
   53    3.77716E-05 FREQ     13 [BUS13       138.00]  3.15218E-05 FREQ     14 [BUS14       138.00]

 0.0458   49.328       22.906       21.387       14.639       20.899      0.81302
    7    0.39794      0.39807      0.29596      0.34762      1.96963E-02  0.14966
   13    0.14976      9.92848E-02  9.94201E-02  7.86953E-06  7.75529E-06  1.04847E-05
   19    3.13176E-05  1.41046E-05   25.832       49.328       1.0000       14.639
   25     6.0000       34.689       1.0301       1.0198       1.0004      0.99873
   31     1.0046      0.99879       1.0070       1.0190       1.0021      0.99384
   37    0.99319      0.98649      0.98413      0.99078      2.07157E-05  2.17759E-05
   43    2.08254E-05  2.53396E-05  2.62368E-05  4.45029E-05  2.77476E-05  2.45883E-05
   49    3.09806E-05  3.33154E-05  3.87869E-05  4.35234E-05  4.25420E-05  3.59044E-05

 0.0500   49.329       22.907       21.388       14.642       20.901      0.81294
    7    0.39788      0.39802      0.29616      0.34759      1.97085E-02  0.14966
   13    0.14974      9.92681E-02  9.94104E-02  9.55207E-06  9.19949E-06  1.25175E-05
   19    3.53835E-05  1.65631E-05   25.833       49.329       1.0000       14.642
   25     6.0000       34.687       1.0301       1.0198       1.0004      0.99874
   31     1.0046      0.99880       1.0070       1.0190       1.0021      0.99385
   37    0.99320      0.98650      0.98414      0.99079      2.34258E-05  2.45461E-05
   43    2.36461E-05  2.82841E-05  2.91907E-05  4.81610E-05  3.08915E-05  2.77698E-05
   49    3.42118E-05  3.66235E-05  4.22713E-05  4.71491E-05  4.61387E-05  3.92755E-05

 0.0542   49.330       22.908       21.389       14.645       20.902      0.81287
    7    0.39784      0.39797      0.29634      0.34758      1.97184E-02  0.14966
   13    0.14971      9.92548E-02  9.93990E-02  1.13049E-05  1.06804E-05  1.46063E-05
   19    3.92683E-05  1.90338E-05   25.835       49.330       1.0000       14.645
   25     6.0000       34.685       1.0301       1.0198       1.0004      0.99874
   31     1.0046      0.99881       1.0070       1.0190       1.0021      0.99385
   37    0.99321      0.98651      0.98415      0.99079      2.58746E-05  2.70346E-05
   43    2.62183E-05  3.08960E-05  3.17830E-05  5.10190E-05  3.36655E-05  3.06100E-05
   49    3.70343E-05  3.94600E-05  4.51222E-05  5.00240E-05  4.90165E-05  4.21551E-05

 0.0583   49.331       22.909       21.391       14.649       20.904      0.81281
    7    0.39779      0.39793      0.29650      0.34756      1.97274E-02  0.14966
   13    0.14969      9.92439E-02  9.93860E-02  1.31202E-05  1.21934E-05  1.67413E-05
   19    4.29725E-05  2.15075E-05   25.837       49.331       1.0000       14.649
   25     6.0000       34.682       1.0301       1.0198       1.0005      0.99875
   31     1.0046      0.99882       1.0070       1.0190       1.0021      0.99386
   37    0.99321      0.98652      0.98415      0.99080      2.81195E-05  2.93032E-05
   43    2.85881E-05  3.32378E-05  3.40916E-05  5.33200E-05  3.61265E-05  3.31808E-05
   49    3.94957E-05  4.19016E-05  4.74980E-05  5.23557E-05  5.13650E-05  4.46001E-05

   TIME X- VALUE --X X--------- IDENTIFIER ---------X X- VALUE --X X--------- IDENTIFIER ---------X
 0.0625   49.332     ANGL     1[BUS1        69.000]1    22.910     ANGL     2[BUS2        69.000]1
    3     21.392     ANGL     3[BUS3        69.000]1    14.653     ANGL     6[BUS6        138.00]1
    5     20.906     ANGL     8[BUS8        69.000]1   0.81275     POWR     1[BUS1        69.000]1
    7    0.39775     POWR     2[BUS2        69.000]1   0.39789     POWR     3[BUS3        69.000]1
    9    0.29665     POWR     6[BUS6        138.00]1   0.34755     POWR     8[BUS8        69.000]1
   11    1.97336E-02 VARS     1[BUS1        69.000]1   0.14967     VARS     2[BUS2        69.000]1
   13    0.14966     VARS     3[BUS3        69.000]1   9.92332E-02 VARS     6[BUS6        138.00]1
   15    9.93734E-02 VARS     8[BUS8        69.000]1   1.49904E-05 SPD      1[BUS1        69.000]1
   17    1.37361E-05 SPD      2[BUS2        69.000]1   1.89181E-05 SPD      3[BUS3        69.000]1
   19    4.65142E-05 SPD      6[BUS6        138.00]1   2.39799E-05 SPD      8[BUS8        69.000]1
   21     25.839     AVERAGE ANGLE                      49.332     LARGEST ANGLE
   23     1.0000     BUS WITH LARGEST ANGLE             14.653     SMALLEST ANGLE
   25     6.0000     BUS WITH SMALLEST ANGLE            34.679     ANGLE SPREAD
   27     1.0301     VOLT      1 [BUS1        69.000]   1.0198     VOLT      2 [BUS2        69.000]
   29     1.0005     VOLT      3 [BUS3        69.000]  0.99876     VOLT      4 [BUS4        69.000]
   31     1.0046     VOLT      5 [BUS5        69.000]  0.99883     VOLT      6 [BUS6        138.00]
   33     1.0070     VOLT      7 [BUS7        138.00]   1.0190     VOLT      8 [BUS8        69.000]
   35     1.0021     VOLT      9 [BUS9        138.00]  0.99387     VOLT     10 [BUS10       138.00]
   37    0.99322     VOLT     11 [BUS11       138.00]  0.98653     VOLT     12 [BUS12       138.00]
   39    0.98416     VOLT     13 [BUS13       138.00]  0.99081     VOLT     14 [BUS14       138.00]
   41    3.01889E-05 FREQ      1 [BUS1        69.000]  3.13825E-05 FREQ      2 [BUS2        69.000]
   43    3.07776E-05 FREQ      3 [BUS3        69.000]  3.53473E-05 FREQ      4 [BUS4        69.000]
   45    3.61584E-05 FREQ      5 [BUS5        69.000]  5.51578E-05 FREQ      6 [BUS6        138.00]
   47    3.83178E-05 FREQ      7 [BUS7        138.00]  3.55138E-05 FREQ      8 [BUS8        69.000]
   49    4.16494E-05 FREQ      9 [BUS9        138.00]  4.40059E-05 FREQ     10 [BUS10       138.00]
   51    4.94761E-05 FREQ     11 [BUS11       138.00]  5.42346E-05 FREQ     12 [BUS12       138.00]
   53    5.32718E-05 FREQ     13 [BUS13       138.00]  4.66778E-05 FREQ     14 [BUS14       138.00]

Power flow data changed for load "1" at bus 11 [BUS11       138.00]:
X--ORIGINAL--X  X-NEW VALUE--X  DATA ITEM
   2.31693         2.48669      PL

Channel output file is "ieee_14\ieee14_run_trip_reduced_inertia.outx"

14 diagonal and 24 off-diagonal elements

   TIME X- VALUE --X X--------- IDENTIFIER ---------X X- VALUE --X X--------- IDENTIFIER ---------X
 0.0625   49.332     ANGL     1[BUS1        69.000]1    22.910     ANGL     2[BUS2        69.000]1
    3     21.392     ANGL     3[BUS3        69.000]1    14.653     ANGL     6[BUS6        138.00]1
    5     20.906     ANGL     8[BUS8        69.000]1   0.81286     POWR     1[BUS1        69.000]1
    7    0.39797     POWR     2[BUS2        69.000]1   0.39807     POWR     3[BUS3        69.000]1
    9    0.29752     POWR     6[BUS6        138.00]1   0.34784     POWR     8[BUS8        69.000]1
   11    1.97442E-02 VARS     1[BUS1        69.000]1   0.14971     VARS     2[BUS2        69.000]1
   13    0.14969     VARS     3[BUS3        69.000]1   9.92795E-02 VARS     6[BUS6        138.00]1
   15    9.94524E-02 VARS     8[BUS8        69.000]1   1.49904E-05 SPD      1[BUS1        69.000]1
   17    1.37361E-05 SPD      2[BUS2        69.000]1   1.89181E-05 SPD      3[BUS3        69.000]1
   19    4.65142E-05 SPD      6[BUS6        138.00]1   2.39799E-05 SPD      8[BUS8        69.000]1
   21     25.839     AVERAGE ANGLE                      49.332     LARGEST ANGLE
   23     1.0000     BUS WITH LARGEST ANGLE             14.653     SMALLEST ANGLE
   25     6.0000     BUS WITH SMALLEST ANGLE            34.679     ANGLE SPREAD
   27     1.0301     VOLT      1 [BUS1        69.000]   1.0198     VOLT      2 [BUS2        69.000]
   29     1.0005     VOLT      3 [BUS3        69.000]  0.99874     VOLT      4 [BUS4        69.000]
   31     1.0046     VOLT      5 [BUS5        69.000]  0.99882     VOLT      6 [BUS6        138.00]
   33     1.0070     VOLT      7 [BUS7        138.00]   1.0190     VOLT      8 [BUS8        69.000]
   35     1.0021     VOLT      9 [BUS9        138.00]  0.99382     VOLT     10 [BUS10       138.00]
   37    0.99311     VOLT     11 [BUS11       138.00]  0.98652     VOLT     12 [BUS12       138.00]
   39    0.98415     VOLT     13 [BUS13       138.00]  0.99079     VOLT     14 [BUS14       138.00]
   41    3.01889E-05 FREQ      1 [BUS1        69.000]  3.13825E-05 FREQ      2 [BUS2        69.000]
   43    3.07776E-05 FREQ      3 [BUS3        69.000]  3.53473E-05 FREQ      4 [BUS4        69.000]
   45    3.61584E-05 FREQ      5 [BUS5        69.000]  5.51578E-05 FREQ      6 [BUS6        138.00]
   47    3.83178E-05 FREQ      7 [BUS7        138.00]  3.55138E-05 FREQ      8 [BUS8        69.000]
   49    4.16494E-05 FREQ      9 [BUS9        138.00]  4.40059E-05 FREQ     10 [BUS10       138.00]
   51    4.94761E-05 FREQ     11 [BUS11       138.00]  5.42346E-05 FREQ     12 [BUS12       138.00]
   53    5.32718E-05 FREQ     13 [BUS13       138.00]  4.66778E-05 FREQ     14 [BUS14       138.00]

 0.0667   49.334       22.911       21.394       14.657       20.909      0.81282
    7    0.39793      0.39803      0.29759      0.34783      1.97651E-02  0.14976
   13    0.14970      9.93395E-02  9.94617E-02  1.68197E-05  1.51911E-05  2.09921E-05
   19    4.92274E-05  2.62242E-05   25.841       49.334       1.0000       14.657
   25     6.0000       34.676       1.0301       1.0198       1.0004      0.99874
   31     1.0046      0.99882       1.0070       1.0190       1.0021      0.99381
   37    0.99311      0.98652      0.98415      0.99078      3.21168E-05  3.33107E-05
   43    3.28190E-05  3.72755E-05  3.80386E-05  5.66550E-05  4.02986E-05  3.76585E-05
   49    4.35612E-05  4.58531E-05  5.11535E-05  5.57790E-05  5.48476E-05  4.84732E-05

 0.0708   49.335       22.913       21.396       14.662       20.911      0.81279
    7    0.39792      0.39803      0.29764      0.34784      1.97631E-02  0.14978
   13    0.14968      9.93424E-02  9.94488E-02  1.86149E-05  1.65937E-05  2.30001E-05
   19    5.14571E-05  2.83098E-05   25.843       49.335       1.0000       14.662
   25     6.0000       34.673       1.0301       1.0198       1.0005      0.99875
   31     1.0046      0.99883       1.0070       1.0190       1.0021      0.99382
   37    0.99312      0.98653      0.98416      0.99079      3.34632E-05  3.46229E-05
   43    3.43257E-05  3.84872E-05  3.91353E-05  5.64573E-05  4.14732E-05  3.90712E-05
   49    4.45521E-05  4.66785E-05  5.15007E-05  5.57394E-05  5.49292E-05  4.91821E-05

 0.0750   49.337       22.914       21.398       14.666       20.914      0.81276
    7    0.39789      0.39801      0.29771      0.34784      1.97638E-02  0.14980
   13    0.14965      9.93436E-02  9.94359E-02  2.04452E-05  1.80371E-05  2.50426E-05
   19    5.38664E-05  3.04319E-05   25.846       49.337       1.0000       14.666
   25     6.0000       34.671       1.0301       1.0198       1.0005      0.99875
   31     1.0046      0.99884       1.0070       1.0190       1.0021      0.99383
   37    0.99313      0.98654      0.98417      0.99080      3.43660E-05  3.54616E-05
   43    3.53388E-05  3.90648E-05  3.96229E-05  5.54459E-05  4.19247E-05  3.99431E-05
   49    4.46828E-05  4.66014E-05  5.09619E-05  5.47894E-05  5.40543E-05  4.88419E-05

 0.0792   49.339       22.916       21.401       14.671       20.917      0.81273
    7    0.39787      0.39800      0.29778      0.34785      1.97632E-02  0.14983
   13    0.14963      9.93387E-02  9.94226E-02  2.23025E-05  1.95015E-05  2.71105E-05
   19    5.61966E-05  3.25425E-05   25.849       49.339       1.0000       14.671
   25     6.0000       34.667       1.0301       1.0198       1.0005      0.99876
   31     1.0046      0.99885       1.0070       1.0190       1.0021      0.99383
   37    0.99314      0.98655      0.98418      0.99081      3.55134E-05  3.65662E-05
   43    3.65666E-05  4.00450E-05  4.05340E-05  5.53691E-05  4.28398E-05  4.10783E-05
   49    4.54315E-05  4.72123E-05  5.12387E-05  5.47893E-05  5.41177E-05  4.93304E-05

   TIME X- VALUE --X X--------- IDENTIFIER ---------X X- VALUE --X X--------- IDENTIFIER ---------X
 0.0833   49.341     ANGL     1[BUS1        69.000]1    22.918     ANGL     2[BUS2        69.000]1
    3     21.403     ANGL     3[BUS3        69.000]1    14.677     ANGL     6[BUS6        138.00]1
    5     20.920     ANGL     8[BUS8        69.000]1   0.81270     POWR     1[BUS1        69.000]1
    7    0.39785     POWR     2[BUS2        69.000]1   0.39798     POWR     3[BUS3        69.000]1
    9    0.29784     POWR     6[BUS6        138.00]1   0.34785     POWR     8[BUS8        69.000]1
   11    1.97615E-02 VARS     1[BUS1        69.000]1   0.14986     VARS     2[BUS2        69.000]1
   13    0.14960     VARS     3[BUS3        69.000]1   9.93325E-02 VARS     6[BUS6        138.00]1
   15    9.94081E-02 VARS     8[BUS8        69.000]1   2.41801E-05 SPD      1[BUS1        69.000]1
   17    2.09803E-05 SPD      2[BUS2        69.000]1   2.91926E-05 SPD      3[BUS3        69.000]1
   19    5.84573E-05 SPD      6[BUS6        138.00]1   3.46328E-05 SPD      8[BUS8        69.000]1
   21     25.852     AVERAGE ANGLE                      49.341     LARGEST ANGLE
   23     1.0000     BUS WITH LARGEST ANGLE             14.677     SMALLEST ANGLE
   25     6.0000     BUS WITH SMALLEST ANGLE            34.664     ANGLE SPREAD
   27     1.0301     VOLT      1 [BUS1        69.000]   1.0198     VOLT      2 [BUS2        69.000]
   29     1.0005     VOLT      3 [BUS3        69.000]  0.99877     VOLT      4 [BUS4        69.000]
   31     1.0046     VOLT      5 [BUS5        69.000]  0.99886     VOLT      6 [BUS6        138.00]
   33     1.0070     VOLT      7 [BUS7        138.00]   1.0190     VOLT      8 [BUS8        69.000]
   35     1.0021     VOLT      9 [BUS9        138.00]  0.99384     VOLT     10 [BUS10       138.00]
   37    0.99314     VOLT     11 [BUS11       138.00]  0.98655     VOLT     12 [BUS12       138.00]
   39    0.98418     VOLT     13 [BUS13       138.00]  0.99081     VOLT     14 [BUS14       138.00]
   41    3.66838E-05 FREQ      1 [BUS1        69.000]  3.76991E-05 FREQ      2 [BUS2        69.000]
   43    3.78150E-05 FREQ      3 [BUS3        69.000]  4.10540E-05 FREQ      4 [BUS4        69.000]
   45    4.14842E-05 FREQ      5 [BUS5        69.000]  5.54093E-05 FREQ      6 [BUS6        138.00]
   47    4.37739E-05 FREQ      7 [BUS7        138.00]  4.22242E-05 FREQ      8 [BUS8        69.000]
   49    4.61993E-05 FREQ      9 [BUS9        138.00]  4.78535E-05 FREQ     10 [BUS10       138.00]
   51    5.15859E-05 FREQ     11 [BUS11       138.00]  5.48865E-05 FREQ     12 [BUS12       138.00]
   53    5.42645E-05 FREQ     13 [BUS13       138.00]  4.98408E-05 FREQ     14 [BUS14       138.00]

Power flow data changed for load "1" at bus 11 [BUS11       138.00]:
X--ORIGINAL--X  X-NEW VALUE--X  DATA ITEM
   2.48669         2.81480      PL

Channel output file is "ieee_14\ieee14_run_trip_reduced_inertia.outx"

14 diagonal and 24 off-diagonal elements

   TIME X- VALUE --X X--------- IDENTIFIER ---------X X- VALUE --X X--------- IDENTIFIER ---------X
 0.0833   49.341     ANGL     1[BUS1        69.000]1    22.918     ANGL     2[BUS2        69.000]1
    3     21.403     ANGL     3[BUS3        69.000]1    14.677     ANGL     6[BUS6        138.00]1
    5     20.920     ANGL     8[BUS8        69.000]1   0.81293     POWR     1[BUS1        69.000]1
    7    0.39829     POWR     2[BUS2        69.000]1   0.39835     POWR     3[BUS3        69.000]1
    9    0.29955     POWR     6[BUS6        138.00]1   0.34842     POWR     8[BUS8        69.000]1
   11    1.97609E-02 VARS     1[BUS1        69.000]1   0.14990     VARS     2[BUS2        69.000]1
   13    0.14960     VARS     3[BUS3        69.000]1   9.93653E-02 VARS     6[BUS6        138.00]1
   15    9.95365E-02 VARS     8[BUS8        69.000]1   2.41801E-05 SPD      1[BUS1        69.000]1
   17    2.09803E-05 SPD      2[BUS2        69.000]1   2.91926E-05 SPD      3[BUS3        69.000]1
   19    5.84573E-05 SPD      6[BUS6        138.00]1   3.46328E-05 SPD      8[BUS8        69.000]1
   21     25.852     AVERAGE ANGLE                      49.341     LARGEST ANGLE
   23     1.0000     BUS WITH LARGEST ANGLE             14.677     SMALLEST ANGLE
   25     6.0000     BUS WITH SMALLEST ANGLE            34.664     ANGLE SPREAD
   27     1.0301     VOLT      1 [BUS1        69.000]   1.0198     VOLT      2 [BUS2        69.000]
   29     1.0005     VOLT      3 [BUS3        69.000]  0.99874     VOLT      4 [BUS4        69.000]
   31     1.0046     VOLT      5 [BUS5        69.000]  0.99884     VOLT      6 [BUS6        138.00]
   33     1.0070     VOLT      7 [BUS7        138.00]   1.0190     VOLT      8 [BUS8        69.000]
   35     1.0021     VOLT      9 [BUS9        138.00]  0.99376     VOLT     10 [BUS10       138.00]
   37    0.99295     VOLT     11 [BUS11       138.00]  0.98654     VOLT     12 [BUS12       138.00]
   39    0.98417     VOLT     13 [BUS13       138.00]  0.99078     VOLT     14 [BUS14       138.00]
   41    3.66838E-05 FREQ      1 [BUS1        69.000]  3.76991E-05 FREQ      2 [BUS2        69.000]
   43    3.78150E-05 FREQ      3 [BUS3        69.000]  4.10540E-05 FREQ      4 [BUS4        69.000]
   45    4.14842E-05 FREQ      5 [BUS5        69.000]  5.54093E-05 FREQ      6 [BUS6        138.00]
   47    4.37739E-05 FREQ      7 [BUS7        138.00]  4.22242E-05 FREQ      8 [BUS8        69.000]
   49    4.61993E-05 FREQ      9 [BUS9        138.00]  4.78535E-05 FREQ     10 [BUS10       138.00]
   51    5.15859E-05 FREQ     11 [BUS11       138.00]  5.48865E-05 FREQ     12 [BUS12       138.00]
   53    5.42645E-05 FREQ     13 [BUS13       138.00]  4.98408E-05 FREQ     14 [BUS14       138.00]

 0.0875   49.343       22.920       21.406       14.682       20.923      0.81294
    7    0.39829      0.39837      0.29951      0.34844      1.97646E-02  0.14996
   13    0.14961      9.94243E-02  9.95396E-02  2.58914E-05  2.22401E-05  3.09990E-05
   19    5.93145E-05  3.62585E-05   25.855       49.343       1.0000       14.682
   25     6.0000       34.661       1.0301       1.0198       1.0005      0.99875
   31     1.0046      0.99885       1.0070       1.0190       1.0021      0.99376
   37    0.99295      0.98655      0.98417      0.99079      3.78825E-05  3.88631E-05
   43    3.90805E-05  4.21111E-05  4.24893E-05  5.56039E-05  4.47542E-05  4.33765E-05
   49    4.70383E-05  4.85818E-05  5.20515E-05  5.51328E-05  5.45565E-05  5.04570E-05

 0.0917   49.346       22.922       21.409       14.687       20.926      0.81297
    7    0.39831      0.39841      0.29942      0.34848      1.97470E-02  0.14999
   13    0.14958      9.94421E-02  9.95211E-02  2.74396E-05  2.33357E-05  3.25810E-05
   19    5.93821E-05  3.75344E-05   25.858       49.346       1.0000       14.687
   25     6.0000       34.658       1.0301       1.0198       1.0005      0.99875
   31     1.0046      0.99886       1.0070       1.0190       1.0021      0.99377
   37    0.99296      0.98656      0.98418      0.99080      3.79772E-05  3.88562E-05
   43    3.92880E-05  4.17358E-05  4.19784E-05  5.28428E-05  4.41244E-05  4.32188E-05
   49    4.59688E-05  4.72292E-05  5.00186E-05  5.24941E-05  5.20515E-05  4.87526E-05

 0.0958   49.348       22.924       21.412       14.693       20.930      0.81297
    7    0.39831      0.39841      0.29938      0.34849      1.97385E-02  0.15004
   13    0.14957      9.94543E-02  9.95097E-02  2.89952E-05  2.44912E-05  3.42075E-05
   19    6.00160E-05  3.88999E-05   25.861       49.348       1.0000       14.693
   25     6.0000       34.656       1.0301       1.0198       1.0005      0.99876
   31     1.0046      0.99887       1.0070       1.0190       1.0021      0.99377
   37    0.99297      0.98656      0.98419      0.99080      3.74925E-05  3.82367E-05
   43    3.88655E-05  4.06450E-05  4.07565E-05  4.90995E-05  4.27267E-05  4.23505E-05
   49    4.40891E-05  4.50165E-05  4.70510E-05  4.88643E-05  4.85458E-05  4.61467E-05

 0.1000   49.351       22.926       21.415       14.698       20.933      0.81297
    7    0.39831      0.39842      0.29935      0.34850      1.97294E-02  0.15008
   13    0.14954      9.94536E-02  9.94953E-02  3.05471E-05  2.56554E-05  3.58399E-05
   19    6.06614E-05  4.02480E-05   25.865       49.351       1.0000       14.698
   25     6.0000       34.653       1.0301       1.0198       1.0005      0.99877
   31     1.0046      0.99887       1.0070       1.0190       1.0021      0.99378
   37    0.99297      0.98657      0.98420      0.99081      3.76798E-05  3.83504E-05
   43    3.90783E-05  4.05544E-05  4.05915E-05  4.75861E-05  4.24612E-05  4.22555E-05
   49    4.36279E-05  4.43824E-05  4.59906E-05  4.74598E-05  4.72227E-05  4.53701E-05

Power flow data changed for load "1" at bus 11 [BUS11       138.00]:
X--ORIGINAL--X  X-NEW VALUE--X  DATA ITEM
   2.81480         2.56879      PL

Channel output file is "ieee_14\ieee14_run_trip_reduced_inertia.outx"

14 diagonal and 24 off-diagonal elements

   TIME X- VALUE --X X--------- IDENTIFIER ---------X X- VALUE --X X--------- IDENTIFIER ---------X
 0.1000   49.351     ANGL     1[BUS1        69.000]1    22.926     ANGL     2[BUS2        69.000]1
    3     21.415     ANGL     3[BUS3        69.000]1    14.698     ANGL     6[BUS6        138.00]1
    5     20.933     ANGL     8[BUS8        69.000]1   0.81280     POWR     1[BUS1        69.000]1
    7    0.39799     POWR     2[BUS2        69.000]1   0.39817     POWR     3[BUS3        69.000]1
    9    0.29809     POWR     6[BUS6        138.00]1   0.34809     POWR     8[BUS8        69.000]1
   11    1.96960E-02 VARS     1[BUS1        69.000]1   0.14999     VARS     2[BUS2        69.000]1
   13    0.14947     VARS     3[BUS3        69.000]1   9.93418E-02 VARS     6[BUS6        138.00]1
   15    9.93578E-02 VARS     8[BUS8        69.000]1   3.05471E-05 SPD      1[BUS1        69.000]1
   17    2.56554E-05 SPD      2[BUS2        69.000]1   3.58399E-05 SPD      3[BUS3        69.000]1
   19    6.06614E-05 SPD      6[BUS6        138.00]1   4.02480E-05 SPD      8[BUS8        69.000]1
   21     25.865     AVERAGE ANGLE                      49.351     LARGEST ANGLE
   23     1.0000     BUS WITH LARGEST ANGLE             14.698     SMALLEST ANGLE
   25     6.0000     BUS WITH SMALLEST ANGLE            34.653     ANGLE SPREAD
   27     1.0302     VOLT      1 [BUS1        69.000]   1.0198     VOLT      2 [BUS2        69.000]
   29     1.0005     VOLT      3 [BUS3        69.000]  0.99880     VOLT      4 [BUS4        69.000]
   31     1.0047     VOLT      5 [BUS5        69.000]  0.99889     VOLT      6 [BUS6        138.00]
   33     1.0070     VOLT      7 [BUS7        138.00]   1.0191     VOLT      8 [BUS8        69.000]
   35     1.0022     VOLT      9 [BUS9        138.00]  0.99386     VOLT     10 [BUS10       138.00]
   37    0.99314     VOLT     11 [BUS11       138.00]  0.98659     VOLT     12 [BUS12       138.00]
   39    0.98422     VOLT     13 [BUS13       138.00]  0.99085     VOLT     14 [BUS14       138.00]
   41    3.76798E-05 FREQ      1 [BUS1        69.000]  3.83504E-05 FREQ      2 [BUS2        69.000]
   43    3.90783E-05 FREQ      3 [BUS3        69.000]  4.05544E-05 FREQ      4 [BUS4        69.000]
   45    4.05915E-05 FREQ      5 [BUS5        69.000]  4.75861E-05 FREQ      6 [BUS6        138.00]
   47    4.24612E-05 FREQ      7 [BUS7        138.00]  4.22555E-05 FREQ      8 [BUS8        69.000]
   49    4.36279E-05 FREQ      9 [BUS9        138.00]  4.43824E-05 FREQ     10 [BUS10       138.00]
   51    4.59906E-05 FREQ     11 [BUS11       138.00]  4.74598E-05 FREQ     12 [BUS12       138.00]
   53    4.72227E-05 FREQ     13 [BUS13       138.00]  4.53701E-05 FREQ     14 [BUS14       138.00]

 0.1042   49.354       22.928       21.418       14.704       20.937      0.81276
    7    0.39795      0.39812      0.29812      0.34806      1.97144E-02  0.15007
   13    0.14950      9.93746E-02  9.93701E-02  3.22125E-05  2.69836E-05  3.76604E-05
   19    6.23139E-05  4.18858E-05   25.868       49.354       1.0000       14.704
   25     6.0000       34.650       1.0302       1.0199       1.0005      0.99880
   31     1.0047      0.99889       1.0070       1.0191       1.0021      0.99386
   37    0.99313      0.98659      0.98422      0.99085      3.80302E-05  3.86421E-05
   43    3.94568E-05  4.06577E-05  4.06409E-05  4.65282E-05  4.23902E-05  4.23437E-05
   49    4.33713E-05  4.39852E-05  4.52673E-05  4.64598E-05  4.62772E-05  4.48234E-05

 0.1083   49.357       22.931       21.422       14.709       20.941      0.81273
    7    0.39795      0.39812      0.29827      0.34807      1.96918E-02  0.15007
   13    0.14943      9.92770E-02  9.93320E-02  3.40168E-05  2.84662E-05  3.96897E-05
   19    6.45576E-05  4.37724E-05   25.872       49.357       1.0000       14.709
   25     6.0000       34.647       1.0302       1.0199       1.0005      0.99882
   31     1.0047      0.99890       1.0070       1.0191       1.0022      0.99387
   37    0.99315      0.98660      0.98423      0.99086      3.94953E-05  4.01345E-05
   43    4.09617E-05  4.23733E-05  4.23301E-05  4.84342E-05  4.41613E-05  4.37285E-05
   49    4.53915E-05  4.60544E-05  4.72823E-05  4.85101E-05  4.83835E-05  4.71376E-05

 0.1125   49.360       22.934       21.425       14.715       20.945      0.81270
    7    0.39793      0.39810      0.29833      0.34807      1.96842E-02  0.15011
   13    0.14941      9.92560E-02  9.93157E-02  3.57921E-05  2.98810E-05  4.16327E-05
   19    6.62647E-05  4.55093E-05   25.876       49.360       1.0000       14.715
   25     6.0000       34.645       1.0302       1.0199       1.0005      0.99883
   31     1.0047      0.99891       1.0070       1.0191       1.0022      0.99388
   37    0.99316      0.98661      0.98424      0.99087      4.12248E-05  4.18858E-05
   43    4.26345E-05  4.41062E-05  4.41618E-05  5.10666E-05  4.58450E-05  4.54692E-05
   49    4.70406E-05  4.77961E-05  4.94237E-05  5.09243E-05  5.06641E-05  4.88032E-05

 0.1167   49.363       22.936       21.429       14.721       20.949      0.81267
    7    0.39791      0.39809      0.29839      0.34806      1.96798E-02  0.15016
   13    0.14938      9.92346E-02  9.92993E-02  3.75748E-05  3.13133E-05  4.35975E-05
   19    6.79500E-05  4.72376E-05   25.880       49.363       1.0000       14.721
   25     6.0000       34.642       1.0302       1.0199       1.0005      0.99884
   31     1.0047      0.99892       1.0071       1.0191       1.0022      0.99389
   37    0.99316      0.98662      0.98425      0.99088      4.26740E-05  4.33337E-05
   43    4.40958E-05  4.55839E-05  4.56406E-05  5.25731E-05  4.72957E-05  4.68604E-05
   49    4.85191E-05  4.92798E-05  5.09168E-05  5.24331E-05  5.21699E-05  5.03021E-05

   TIME X- VALUE --X X--------- IDENTIFIER ---------X X- VALUE --X X--------- IDENTIFIER ---------X
 0.1208   49.367     ANGL     1[BUS1        69.000]1    22.939     ANGL     2[BUS2        69.000]1
    3     21.433     ANGL     3[BUS3        69.000]1    14.727     ANGL     6[BUS6        138.00]1
    5     20.953     ANGL     8[BUS8        69.000]1   0.81265     POWR     1[BUS1        69.000]1
    7    0.39789     POWR     2[BUS2        69.000]1   0.39808     POWR     3[BUS3        69.000]1
    9    0.29845     POWR     6[BUS6        138.00]1   0.34806     POWR     8[BUS8        69.000]1
   11    1.96734E-02 VARS     1[BUS1        69.000]1   0.15020     VARS     2[BUS2        69.000]1
   13    0.14936     VARS     3[BUS3        69.000]1   9.92151E-02 VARS     6[BUS6        138.00]1
   15    9.92856E-02 VARS     8[BUS8        69.000]1   3.93725E-05 SPD      1[BUS1        69.000]1
   17    3.27560E-05 SPD      2[BUS2        69.000]1   4.55748E-05 SPD      3[BUS3        69.000]1
   19    6.95684E-05 SPD      6[BUS6        138.00]1   4.89536E-05 SPD      8[BUS8        69.000]1
   21     25.884     AVERAGE ANGLE                      49.367     LARGEST ANGLE
   23     1.0000     BUS WITH LARGEST ANGLE             14.727     SMALLEST ANGLE
   25     6.0000     BUS WITH SMALLEST ANGLE            34.639     ANGLE SPREAD
   27     1.0302     VOLT      1 [BUS1        69.000]   1.0199     VOLT      2 [BUS2        69.000]
   29     1.0005     VOLT      3 [BUS3        69.000]  0.99885     VOLT      4 [BUS4        69.000]
   31     1.0047     VOLT      5 [BUS5        69.000]  0.99893     VOLT      6 [BUS6        138.00]
   33     1.0071     VOLT      7 [BUS7        138.00]   1.0191     VOLT      8 [BUS8        69.000]
   35     1.0022     VOLT      9 [BUS9        138.00]  0.99390     VOLT     10 [BUS10       138.00]
   37    0.99317     VOLT     11 [BUS11       138.00]  0.98663     VOLT     12 [BUS12       138.00]
   39    0.98426     VOLT     13 [BUS13       138.00]  0.99089     VOLT     14 [BUS14       138.00]
   41    4.41598E-05 FREQ      1 [BUS1        69.000]  4.48271E-05 FREQ      2 [BUS2        69.000]
   43    4.56099E-05 FREQ      3 [BUS3        69.000]  4.70987E-05 FREQ      4 [BUS4        69.000]
   45    4.71578E-05 FREQ      5 [BUS5        69.000]  5.41195E-05 FREQ      6 [BUS6        138.00]
   47    4.87750E-05 FREQ      7 [BUS7        138.00]  4.82801E-05 FREQ      8 [BUS8        69.000]
   49    5.00197E-05 FREQ      9 [BUS9        138.00]  5.07867E-05 FREQ     10 [BUS10       138.00]
   51    5.24414E-05 FREQ     11 [BUS11       138.00]  5.39787E-05 FREQ     12 [BUS12       138.00]
   53    5.37080E-05 FREQ     13 [BUS13       138.00]  5.18223E-05 FREQ     14 [BUS14       138.00]

Power flow data changed for load "1" at bus 11 [BUS11       138.00]:
X--ORIGINAL--X  X-NEW VALUE--X  DATA ITEM
   2.56879         2.32282      PL

Channel output file is "ieee_14\ieee14_run_trip_reduced_inertia.outx"

14 diagonal and 24 off-diagonal elements

   TIME X- VALUE --X X--------- IDENTIFIER ---------X X- VALUE --X X--------- IDENTIFIER ---------X
 0.1208   49.367     ANGL     1[BUS1        69.000]1    22.939     ANGL     2[BUS2        69.000]1
    3     21.433     ANGL     3[BUS3        69.000]1    14.727     ANGL     6[BUS6        138.00]1
    5     20.953     ANGL     8[BUS8        69.000]1   0.81247     POWR     1[BUS1        69.000]1
    7    0.39756     POWR     2[BUS2        69.000]1   0.39780     POWR     3[BUS3        69.000]1
    9    0.29717     POWR     6[BUS6        138.00]1   0.34764     POWR     8[BUS8        69.000]1
   11    1.96581E-02 VARS     1[BUS1        69.000]1   0.15014     VARS     2[BUS2        69.000]1
   13    0.14933     VARS     3[BUS3        69.000]1   9.91490E-02 VARS     6[BUS6        138.00]1
   15    9.91688E-02 VARS     8[BUS8        69.000]1   3.93725E-05 SPD      1[BUS1        69.000]1
   17    3.27560E-05 SPD      2[BUS2        69.000]1   4.55748E-05 SPD      3[BUS3        69.000]1
   19    6.95684E-05 SPD      6[BUS6        138.00]1   4.89536E-05 SPD      8[BUS8        69.000]1
   21     25.884     AVERAGE ANGLE                      49.367     LARGEST ANGLE
   23     1.0000     BUS WITH LARGEST ANGLE             14.727     SMALLEST ANGLE
   25     6.0000     BUS WITH SMALLEST ANGLE            34.639     ANGLE SPREAD
   27     1.0302     VOLT      1 [BUS1        69.000]   1.0199     VOLT      2 [BUS2        69.000]
   29     1.0005     VOLT      3 [BUS3        69.000]  0.99888     VOLT      4 [BUS4        69.000]
   31     1.0047     VOLT      5 [BUS5        69.000]  0.99894     VOLT      6 [BUS6        138.00]
   33     1.0071     VOLT      7 [BUS7        138.00]   1.0191     VOLT      8 [BUS8        69.000]
   35     1.0022     VOLT      9 [BUS9        138.00]  0.99397     VOLT     10 [BUS10       138.00]
   37    0.99333     VOLT     11 [BUS11       138.00]  0.98664     VOLT     12 [BUS12       138.00]
   39    0.98428     VOLT     13 [BUS13       138.00]  0.99092     VOLT     14 [BUS14       138.00]
   41    4.41598E-05 FREQ      1 [BUS1        69.000]  4.48271E-05 FREQ      2 [BUS2        69.000]
   43    4.56099E-05 FREQ      3 [BUS3        69.000]  4.70987E-05 FREQ      4 [BUS4        69.000]
   45    4.71578E-05 FREQ      5 [BUS5        69.000]  5.41195E-05 FREQ      6 [BUS6        138.00]
   47    4.87750E-05 FREQ      7 [BUS7        138.00]  4.82801E-05 FREQ      8 [BUS8        69.000]
   49    5.00197E-05 FREQ      9 [BUS9        138.00]  5.07867E-05 FREQ     10 [BUS10       138.00]
   51    5.24414E-05 FREQ     11 [BUS11       138.00]  5.39787E-05 FREQ     12 [BUS12       138.00]
   53    5.37080E-05 FREQ     13 [BUS13       138.00]  5.18223E-05 FREQ     14 [BUS14       138.00]

 0.1250   49.370       22.942       21.438       14.734       20.958      0.81242
    7    0.39753      0.39777      0.29730      0.34762      1.96590E-02  0.15018
   13    0.14930      9.91073E-02  9.91536E-02  4.13154E-05  3.43829E-05  4.77757E-05
   19    7.21305E-05  5.09856E-05   25.888       49.370       1.0000       14.734
   25     6.0000       34.636       1.0302       1.0199       1.0006      0.99889
   31     1.0047      0.99895       1.0071       1.0191       1.0022      0.99397
   37    0.99333      0.98665      0.98428      0.99093      4.56464E-05  4.63132E-05
   43    4.71252E-05  4.85913E-05  4.86474E-05  5.55561E-05  5.02282E-05  4.96943E-05
   49    5.14780E-05  5.22404E-05  5.38862E-05  5.54187E-05  5.51487E-05  5.32793E-05

 0.1292   49.374       22.945       21.442       14.740       20.962      0.81235
    7    0.39749      0.39773      0.29747      0.34759      1.96613E-02  0.15022
   13    0.14928      9.90627E-02  9.91401E-02  4.34020E-05  3.61540E-05  5.01677E-05
   19    7.51763E-05  5.32512E-05   25.893       49.374       1.0000       14.740
   25     6.0000       34.634       1.0302       1.0199       1.0006      0.99890
   31     1.0048      0.99896       1.0071       1.0191       1.0022      0.99398
   37    0.99334      0.98666      0.98429      0.99093      4.79597E-05  4.86803E-05
   43    4.94398E-05  5.11655E-05  5.12772E-05  5.91931E-05  5.28895E-05  5.20831E-05
   49    5.43566E-05  5.52531E-05  5.72031E-05  5.90088E-05  5.86837E-05  5.64645E-05

 0.1333   49.378       22.949       21.447       14.747       20.967      0.81231
    7    0.39746      0.39770      0.29759      0.34758      1.96596E-02  0.15026
   13    0.14925      9.90351E-02  9.91227E-02  4.54992E-05  3.78956E-05  5.25337E-05
   19    7.76929E-05  5.54138E-05   25.898       49.378       1.0000       14.747
   25     6.0000       34.631       1.0302       1.0199       1.0006      0.99891
   31     1.0048      0.99896       1.0071       1.0191       1.0022      0.99399
   37    0.99335      0.98667      0.98430      0.99094      5.06959E-05  5.14901E-05
   43    5.22017E-05  5.42242E-05  5.44020E-05  6.35755E-05  5.60612E-05  5.49779E-05
   49    5.77599E-05  5.88236E-05  6.11684E-05  6.33182E-05  6.29186E-05  6.02168E-05

 0.1375   49.382       22.952       21.451       14.754       20.972      0.81226
    7    0.39743      0.39768      0.29769      0.34757      1.96580E-02  0.15030
   13    0.14923      9.90086E-02  9.91069E-02  4.76177E-05  3.96547E-05  5.49167E-05
   19    8.01209E-05  5.75658E-05   25.903       49.382       1.0000       14.754
   25     6.0000       34.628       1.0303       1.0200       1.0006      0.99892
   31     1.0048      0.99897       1.0071       1.0191       1.0023      0.99400
   37    0.99336      0.98668      0.98431      0.99095      5.29971E-05  5.38203E-05
   43    5.45544E-05  5.66540E-05  5.68457E-05  6.64169E-05  5.85269E-05  5.73409E-05
   49    6.03115E-05  6.14248E-05  6.38874E-05  6.61437E-05  6.57218E-05  6.28858E-05

   TIME X- VALUE --X X--------- IDENTIFIER ---------X X- VALUE --X X--------- IDENTIFIER ---------X
 0.1417   49.387     ANGL     1[BUS1        69.000]1    22.956     ANGL     2[BUS2        69.000]1
    3     21.456     ANGL     3[BUS3        69.000]1    14.762     ANGL     6[BUS6        138.00]1
    5     20.978     ANGL     8[BUS8        69.000]1   0.81222     POWR     1[BUS1        69.000]1
    7    0.39740     POWR     2[BUS2        69.000]1   0.39766     POWR     3[BUS3        69.000]1
    9    0.29779     POWR     6[BUS6        138.00]1   0.34756     POWR     8[BUS8        69.000]1
   11    1.96548E-02 VARS     1[BUS1        69.000]1   0.15034     VARS     2[BUS2        69.000]1
   13    0.14920     VARS     3[BUS3        69.000]1   9.89863E-02 VARS     6[BUS6        138.00]1
...